11
C4H5NO
C    2.1747   -0.0054    0.0007
C    0.6684    0.0405    0.0011
C   -0.1091    1.1496   -0.0009
C   -1.4286    0.6420   -0.0000
N   -1.3231   -0.6555    0.0023
O   -0.1664   -1.0082   -0.0025
H    2.5382   -0.0145    1.0283
H    2.5106   -0.9071   -0.5114
H    2.5649    0.8720   -0.5150
H    0.2060    2.1826   -0.0028
H   -2.3429    1.2167   -0.0006
