10
C3H6O
O   -0.9812   -0.0000    0.1948
C   -0.0226   -0.9987   -0.1776
C    1.0893    0.0000    0.1663
C   -0.0226    0.9987   -0.1776
H   -0.0346   -1.8737    0.4722
H   -0.0581   -1.2595   -1.2354
H    1.3903    0.0000    1.2140
H    1.9293    0.0000   -0.5284
H   -0.0581    1.2595   -1.2354
H   -0.0346    1.8737    0.4722
