14
C7H5BrO
C    0.4803    0.8398   -0.0038
C   -0.8978    0.3203   -0.0022
C   -1.1288   -1.0586   -0.0028
C   -2.4220   -1.5374   -0.0014
C   -3.4897   -0.6569    0.0003
C   -3.2691    0.7094    0.0010
C   -1.9816    1.2034    0.0058
O    0.6772    2.0367   -0.0032
Br    1.9427   -0.3590    0.0011
H   -0.2966   -1.7469   -0.0049
H   -2.6021   -2.6023   -0.0019
H   -4.5003   -1.0379    0.0008
H   -4.1073    1.3904    0.0020
H   -1.8109    2.2699    0.0063
