15
C5H8OS
S    1.3294   -0.8658    0.2135
C   -0.2797   -1.2464   -0.5452
C   -1.2625   -0.1764   -0.1211
C   -0.9371    1.2694   -0.3968
C    0.3345    1.6754    0.3438
C    1.5346    0.8936   -0.1925
O   -2.2938   -0.4769    0.4305
H   -0.1837   -1.2488   -1.6310
H   -0.6267   -2.2215   -0.2033
H   -0.7910    1.4086   -1.4679
H   -1.7646    1.8956   -0.0633
H    0.5078    2.7425    0.2048
H    0.2146    1.4676    1.4071
H    2.4489    1.2693    0.2670
H    1.5935    1.0134   -1.2743
