10
C4H5N
C   -0.3195   -0.0000   -0.6033
C   -1.3486   -0.7650    0.2314
C   -1.3486    0.7650    0.2314
C    1.0745    0.0000   -0.1306
N    2.1503    0.0000    0.2343
H   -0.4492   -0.0000   -1.6856
H   -2.1552   -1.2683   -0.3017
H   -0.9933   -1.2683    1.1307
H   -0.9933    1.2683    1.1307
H   -2.1552    1.2683   -0.3017
