31
C14H14O2S
C   -1.4090    0.0001   -1.3350
C   -2.6940    0.0001   -0.5478
C   -3.2834    1.1973   -0.1868
C   -4.4621    1.1974    0.5353
C   -5.0518    0.0003    0.8960
C   -4.4629   -1.1969    0.5342
C   -3.2865   -1.1970   -0.1916
S   -0.0000    0.0000   -0.1924
O    0.0001    1.2258    0.5264
O   -0.0001   -1.2258    0.5264
C    1.4090   -0.0001   -1.3350
C    2.6940   -0.0001   -0.5478
C    3.2834   -1.1973   -0.1868
C    4.4621   -1.1974    0.5353
C    5.0518   -0.0003    0.8960
C    4.4629    1.1969    0.5342
C    3.2865    1.1970   -0.1916
H   -1.3676   -0.8899   -1.9629
H   -1.3675    0.8901   -1.9629
H   -2.8227    2.1326   -0.4686
H   -4.9222    2.1327    0.8180
H   -5.9723    0.0003    1.4608
H   -4.9234   -2.1322    0.8163
H   -2.8264   -2.1323   -0.4743
H    1.3675   -0.8901   -1.9629
H    1.3676    0.8899   -1.9629
H    2.8227   -2.1326   -0.4686
H    4.9222   -2.1327    0.8180
H    5.9723   -0.0003    1.4608
H    4.9234    2.1322    0.8163
H    2.8264    2.1323   -0.4743
