12
C5H4O3
C    2.1496   -1.3887    0.0014
C    0.8258   -0.6685    0.0012
C    0.6200    0.7948   -0.0001
O   -0.7073    1.0379   -0.0004
C   -1.3784   -0.1328    0.0007
C   -0.3935   -1.2345   -0.0037
O   -2.5854   -0.2593    0.0014
O    1.4958    1.6351   -0.0005
H    2.9599   -0.6596    0.0008
H    2.2234   -2.0132    0.8917
H    2.2231   -2.0142   -0.8883
H   -0.6116   -2.2923   -0.0046
